*AE01.02.03.003sim02
*line regulation (rising)
.include ../AE01.02.03.003.cir
.param VCC=5
.dc V1 0 {VCC} 0.001
